Version 4
SHEET 1 3528 2388
WIRE 224 -16 -128 -16
WIRE -128 48 -128 -16
WIRE 224 48 224 -16
WIRE 1104 48 928 48
WIRE 928 96 928 48
WIRE 1104 96 1104 48
WIRE -128 160 -128 128
WIRE 1280 176 1168 176
WIRE 1280 208 1280 176
WIRE 160 304 160 272
WIRE 304 304 304 272
WIRE 1104 368 1104 256
WIRE 1280 368 1280 288
WIRE 1280 368 1104 368
WIRE 224 384 160 384
WIRE 304 384 224 384
WIRE 1104 384 1104 368
WIRE 224 400 224 384
WIRE 1104 512 1104 464
WIRE 224 528 224 480
WIRE 992 704 560 704
WIRE 624 784 192 784
WIRE 1296 784 928 784
WIRE 928 800 928 784
WIRE 624 816 624 784
WIRE 560 832 560 704
WIRE 592 832 560 832
WIRE 1296 832 1296 784
WIRE 720 848 656 848
WIRE 848 848 800 848
WIRE 192 864 192 784
WIRE 272 864 192 864
WIRE 368 864 352 864
WIRE 448 864 368 864
WIRE 560 864 528 864
WIRE 592 864 560 864
WIRE 192 896 192 864
WIRE 992 896 992 704
WIRE 992 896 928 896
WIRE 560 928 560 864
WIRE 624 928 624 880
WIRE 928 928 928 896
WIRE 928 928 752 928
WIRE 1296 944 1296 912
WIRE 752 976 752 928
WIRE 928 976 928 928
WIRE 368 1024 368 864
WIRE 368 1024 336 1024
WIRE 368 1056 368 1024
WIRE 336 1088 336 1024
WIRE 368 1152 368 1120
WIRE 1376 1328 192 1328
WIRE 992 1376 560 1376
WIRE 192 1456 192 1328
WIRE 624 1456 192 1456
WIRE 1296 1456 928 1456
WIRE 928 1472 928 1456
WIRE 624 1488 624 1456
WIRE 560 1504 560 1376
WIRE 592 1504 560 1504
WIRE 1296 1504 1296 1456
WIRE 720 1520 656 1520
WIRE 848 1520 800 1520
WIRE 192 1536 192 1456
WIRE 272 1536 192 1536
WIRE 368 1536 352 1536
WIRE 448 1536 368 1536
WIRE 560 1536 528 1536
WIRE 592 1536 560 1536
WIRE 192 1568 192 1536
WIRE 992 1568 992 1376
WIRE 992 1568 928 1568
WIRE 560 1600 560 1536
WIRE 624 1600 624 1552
WIRE 928 1600 928 1568
WIRE 928 1600 752 1600
WIRE 1296 1616 1296 1584
WIRE 1376 1616 1376 1328
WIRE 1376 1616 1296 1616
WIRE 752 1648 752 1600
WIRE 928 1648 928 1600
WIRE 368 1696 368 1536
WIRE 368 1696 336 1696
WIRE 368 1728 368 1696
WIRE 336 1760 336 1696
WIRE 368 1824 368 1792
WIRE 1376 1872 192 1872
WIRE 992 1920 560 1920
WIRE 192 2000 192 1872
WIRE 624 2000 192 2000
WIRE 1296 2000 928 2000
WIRE 928 2016 928 2000
WIRE 624 2032 624 2000
WIRE 560 2048 560 1920
WIRE 592 2048 560 2048
WIRE 1296 2048 1296 2000
WIRE 720 2064 656 2064
WIRE 848 2064 800 2064
WIRE 192 2080 192 2000
WIRE 272 2080 192 2080
WIRE 368 2080 352 2080
WIRE 448 2080 368 2080
WIRE 560 2080 528 2080
WIRE 592 2080 560 2080
WIRE 192 2112 192 2080
WIRE 992 2112 992 1920
WIRE 992 2112 928 2112
WIRE 560 2144 560 2080
WIRE 624 2144 624 2096
WIRE 1296 2160 1296 2128
WIRE 1376 2160 1376 1872
WIRE 1376 2160 1296 2160
WIRE 752 2192 752 2144
WIRE 928 2192 928 2112
WIRE 368 2240 368 2080
WIRE 368 2240 336 2240
WIRE 368 2272 368 2240
WIRE 336 2304 336 2240
WIRE 368 2368 368 2336
FLAG -128 160 0
FLAG 224 528 0
FLAG 928 176 0
FLAG 1104 512 0
FLAG 192 976 0
FLAG 368 1152 0
FLAG 560 992 0
FLAG 624 928 0
FLAG 752 1056 0
FLAG 1296 1024 0
FLAG 928 1056 0
FLAG 192 1648 0
FLAG 368 1824 0
FLAG 560 1664 0
FLAG 624 1600 0
FLAG 752 1728 0
FLAG 928 1728 0
FLAG 192 2192 0
FLAG 368 2368 0
FLAG 560 2208 0
FLAG 624 2144 0
FLAG 752 2272 0
FLAG 928 2272 0
SYMBOL PowerProducts\\LT3092 224 160 R0
SYMATTR InstName U1
SYMBOL voltage -128 32 R0
WINDOW 123 0 0 Left 0
WINDOW 39 0 0 Left 0
SYMATTR InstName V1
SYMATTR Value 5
SYMBOL res 288 288 R0
SYMATTR InstName Rout
SYMATTR Value 10
SYMBOL res 144 288 R0
SYMATTR InstName Rset
SYMATTR Value 200k
SYMBOL res 208 384 R0
SYMATTR InstName R1
SYMATTR Value 0.01523
SYMBOL voltage 928 80 R0
WINDOW 123 0 0 Left 0
WINDOW 39 0 0 Left 0
SYMATTR InstName V2
SYMATTR Value 5
SYMBOL res 1088 368 R0
SYMATTR InstName RloadLow
SYMATTR Value 200
SYMBOL res 1264 192 R0
SYMATTR InstName R3
SYMATTR Value 7.34
SYMBOL ZZZ\\VolReg\\LM334_AB 1104 176 R0
SYMATTR InstName U3
SYMBOL ZZZ\\REF\\TL431 352 1056 R0
SYMATTR InstName U2
SYMBOL res 368 848 R90
WINDOW 0 0 56 VBottom 2
WINDOW 3 32 56 VTop 2
SYMATTR InstName R2
SYMATTR Value 1k
SYMBOL voltage 192 880 R0
WINDOW 123 0 0 Left 0
WINDOW 39 0 0 Left 0
SYMATTR InstName V3
SYMATTR Value 12
SYMBOL OpAmps\\OP07 624 784 R0
SYMATTR InstName U4
SYMBOL res 544 848 R90
WINDOW 0 0 56 VBottom 2
WINDOW 3 32 56 VTop 2
SYMATTR InstName R4
SYMATTR Value 10k
SYMBOL cap 544 928 R0
SYMATTR InstName C1
SYMATTR Value 10µ
SYMBOL res 816 832 R90
WINDOW 0 0 56 VBottom 2
WINDOW 3 32 56 VTop 2
SYMATTR InstName R5
SYMATTR Value 100
SYMBOL ZZZ\\MOS\\IRF\\NMOSFET\\irfz44n 896 848 R0
SYMATTR InstName U5
SYMBOL res 736 960 R0
SYMATTR InstName RSenseRelay
SYMATTR Value 25.83
SYMBOL res 1280 816 R0
SYMATTR InstName RLoadHigh
SYMATTR Value 0.01
SYMBOL voltage 1296 928 R0
WINDOW 123 0 0 Left 0
WINDOW 39 0 0 Left 0
SYMATTR InstName VProbePlus
SYMATTR Value 12
SYMBOL res 912 960 R0
SYMATTR InstName RSense
SYMATTR Value 620
SYMBOL ZZZ\\REF\\TL431 352 1728 R0
SYMATTR InstName U6
SYMBOL res 368 1520 R90
WINDOW 0 0 56 VBottom 2
WINDOW 3 32 56 VTop 2
SYMATTR InstName R6
SYMATTR Value 1k
SYMBOL voltage 192 1552 R0
WINDOW 123 0 0 Left 0
WINDOW 39 0 0 Left 0
SYMATTR InstName V4
SYMATTR Value 5
SYMBOL OpAmps\\OP07 624 1456 R0
SYMATTR InstName U7
SYMBOL res 544 1520 R90
WINDOW 0 0 56 VBottom 2
WINDOW 3 32 56 VTop 2
SYMATTR InstName R7
SYMATTR Value 10k
SYMBOL cap 544 1600 R0
SYMATTR InstName C2
SYMATTR Value 10µ
SYMBOL res 816 1504 R90
WINDOW 0 0 56 VBottom 2
WINDOW 3 32 56 VTop 2
SYMATTR InstName R8
SYMATTR Value 100
SYMBOL ZZZ\\MOS\\IRF\\NMOSFET\\irfz44n 896 1520 R0
SYMATTR InstName U8
SYMBOL res 736 1632 R0
SYMATTR InstName RSenseRelay1
SYMATTR Value 4.5
SYMBOL res 1280 1488 R0
SYMATTR InstName RLoadLow1
SYMATTR Value 0.01
SYMBOL res 912 1632 R0
SYMATTR InstName RSense1
SYMATTR Value 121
SYMBOL ZZZ\\REF\\TL431 352 2272 R0
SYMATTR InstName U9
SYMBOL res 368 2064 R90
WINDOW 0 0 56 VBottom 2
WINDOW 3 32 56 VTop 2
SYMATTR InstName R9
SYMATTR Value 1k
SYMBOL voltage 192 2096 R0
WINDOW 123 0 0 Left 0
WINDOW 39 0 0 Left 0
SYMATTR InstName V5
SYMATTR Value 5
SYMBOL OpAmps\\OP07 624 2000 R0
SYMATTR InstName U10
SYMBOL res 544 2064 R90
WINDOW 0 0 56 VBottom 2
WINDOW 3 32 56 VTop 2
SYMATTR InstName R10
SYMATTR Value 10k
SYMBOL cap 544 2144 R0
SYMATTR InstName C3
SYMATTR Value 10µ
SYMBOL res 816 2048 R90
WINDOW 0 0 56 VBottom 2
WINDOW 3 32 56 VTop 2
SYMATTR InstName R11
SYMATTR Value 100
SYMBOL ZZZ\\MOS\\IRF\\NMOSFET\\irfz44n 896 2064 R0
SYMATTR InstName U11
SYMBOL res 736 2176 R0
SYMATTR InstName RSenseRelay2
SYMATTR Value 4.5
SYMBOL res 1280 2032 R0
SYMATTR InstName RLoadHigh1
SYMATTR Value 200
SYMBOL res 912 2176 R0
SYMATTR InstName RSense2
SYMATTR Value 121
TEXT 408 56 Left 2 ;Kondisi dasar tanpa kompensasi:\nIout=Rset/Rout*10uA + 10uA
TEXT -160 424 Left 2 !.tran 10u
TEXT 1344 80 Left 2 ;Iout = 73.465mV/Rset\nMax Iout = 10mA\nCek potensi perubahan panas terhadap Iout
TEXT 896 616 Left 2 ;Iouttheory = Vref on TL431 / Rsense\nfor 4mA, Rsense = 620ohm\nfor 100mA, Rsense = 24.8ohm
TEXT 1368 984 Left 2 ;Positive Probe draws 12V output
TEXT 952 1104 Left 2 ;Default current is 4mA, fits for engineering choice too since\nit produces less power dissipation
TEXT 952 1200 Left 2 ;Relay ON when the voltage reading is too low\nconnects the 25.83 Ohm
TEXT 528 1104 Left 2 ;P = V.V/R\nTotal Power RSenseRelay = 0.2419W\nParallel by 4, each = 0.0605W\n \nTotal Power RSense = 0.01W\n \nNeeds 4W for RSense default\nNeeds 1W for each RSenseRelay
TEXT 384 968 Left 2 ;2.48Vref
TEXT 1312 752 Left 2 ;CORNER CASES:\nCurrent draw changes when above 94 Ohm, 100mA drops lower\nDefault current wont change at all despite the applied changes in RloadHigh
TEXT 1448 888 Left 2 ;Rmax = (12-Vref) / Iouttheory\nP pada RloadHigh = I.I.R
TEXT 336 832 Left 2 ;0.0906W
TEXT 104 672 Left 2 ;Relay near zero resistance wont mess up the current draw
TEXT 384 1640 Left 2 ;2.48Vref
TEXT 336 1504 Left 2 ;0.0906W
TEXT 384 2184 Left 2 ;2.48Vref
TEXT 336 2048 Left 2 ;0.0906W
TEXT 936 2128 Left 2 ;VRef (Vsource) = 0.5V\ntbh 0.494V
TEXT 1072 2216 Left 2 ;Rsense = Vref/Itarget
