Version 4
SHEET 1 3056 1168
WIRE 2016 -272 2016 -288
WIRE 2016 -256 2016 -272
WIRE 1888 -240 1840 -240
WIRE 1984 -240 1888 -240
WIRE 2112 -224 2048 -224
WIRE 2192 -224 2112 -224
WIRE 2288 -224 2272 -224
WIRE 2352 -224 2288 -224
WIRE 2480 -224 2432 -224
WIRE 1984 -208 1952 -208
WIRE 2016 -176 2016 -192
WIRE 2016 -160 2016 -176
WIRE 1952 -128 1952 -208
WIRE 2112 -128 2112 -144
WIRE 2112 -128 1952 -128
WIRE 1424 -112 1296 -112
WIRE 1552 -112 1424 -112
WIRE 1840 -112 1840 -240
WIRE 2112 -112 2112 -128
WIRE 2352 -112 2352 -128
WIRE 2352 -96 2352 -112
WIRE 2288 -80 2288 -224
WIRE 2320 -80 2288 -80
WIRE 2480 -64 2480 -224
WIRE 2480 -64 2384 -64
WIRE 2528 -64 2480 -64
WIRE 2560 -64 2528 -64
WIRE 2320 -48 2288 -48
WIRE 2352 -16 2352 -32
WIRE 2112 0 2112 -32
WIRE 2112 0 1952 0
WIRE 2352 0 2352 -16
WIRE 2112 16 2112 0
WIRE 2016 48 2016 32
WIRE 2016 64 2016 48
WIRE 1424 80 1296 80
WIRE 1552 80 1552 -32
WIRE 1552 80 1424 80
WIRE 1952 80 1952 0
WIRE 1984 80 1952 80
WIRE 2112 96 2048 96
WIRE 2192 96 2112 96
WIRE 2288 96 2288 -48
WIRE 2288 96 2272 96
WIRE 2352 96 2288 96
WIRE 2560 96 2432 96
WIRE 1840 112 1840 -32
WIRE 1888 112 1840 112
WIRE 1984 112 1888 112
WIRE 2016 144 2016 128
WIRE 2560 144 2560 96
WIRE 2016 160 2016 144
WIRE 2560 288 2560 224
WIRE 1472 336 1456 336
WIRE 1600 336 1552 336
WIRE 1632 336 1600 336
WIRE 672 384 672 352
WIRE 864 384 864 352
WIRE 1568 400 1568 384
WIRE 1568 416 1568 400
WIRE 672 432 672 384
WIRE 864 432 864 384
WIRE 1088 432 1056 432
WIRE 1136 432 1088 432
WIRE 1264 432 1216 432
WIRE 1296 432 1264 432
WIRE 1360 432 1296 432
WIRE 1456 432 1456 336
WIRE 1456 432 1440 432
WIRE 1536 432 1456 432
WIRE 1920 448 1600 448
WIRE 2592 448 2560 448
WIRE 2640 448 2592 448
WIRE 2768 448 2720 448
WIRE 2800 448 2768 448
WIRE 1536 464 1488 464
WIRE 1264 480 1264 432
WIRE 1264 480 1232 480
WIRE 1920 496 1920 448
WIRE 2592 496 2592 448
WIRE 2624 496 2592 496
WIRE 1264 512 1264 480
WIRE 1568 512 1568 480
WIRE 1568 528 1568 512
WIRE 2592 528 2592 496
WIRE 1232 544 1232 480
WIRE 2624 560 2624 496
WIRE 864 576 864 512
WIRE 672 608 672 512
WIRE 864 608 864 576
WIRE 1264 624 1264 576
WIRE 1264 640 1264 624
WIRE 2592 640 2592 592
WIRE 2592 656 2592 640
WIRE 1760 720 1760 688
WIRE 1760 752 1760 720
WIRE 1920 768 1920 576
WIRE 1920 768 1792 768
WIRE 1328 784 1296 784
WIRE 1376 784 1328 784
WIRE 1488 784 1488 464
WIRE 1488 784 1456 784
WIRE 1536 784 1488 784
WIRE 1664 784 1616 784
WIRE 1728 784 1664 784
WIRE 1840 800 1792 800
WIRE 1296 832 1296 784
WIRE 1760 864 1760 816
WIRE 1920 864 1920 768
WIRE 1760 880 1760 864
WIRE 1664 928 1664 784
WIRE 1840 928 1840 800
WIRE 1840 928 1664 928
WIRE 1920 992 1920 944
WIRE 1920 1008 1920 992
FLAG 1424 80 VSS
FLAG 1424 -112 VDD
FLAG 672 608 0
FLAG 672 384 VGND
FLAG 864 576 VGND
FLAG 864 384 VIN
FLAG 1920 992 VGND
FLAG 1600 336 VGND
FLAG 1328 784 VGND
FLAG 1568 512 VDD
FLAG 1760 864 VDD
FLAG 1568 400 VSS
FLAG 1760 720 VSS
FLAG 2016 -176 VDD
FLAG 2016 48 VDD
FLAG 2352 -112 VDD
FLAG 2016 -272 VSS
FLAG 2016 144 VSS
FLAG 2352 -16 VSS
FLAG 1888 -240 INP
FLAG 1888 112 INN
FLAG 2528 -64 VAIN0
FLAG 2592 640 VGND
FLAG 2768 448 VIN
FLAG 2560 448 VAIN1
FLAG 2560 288 VGND
FLAG 1264 624 VGND
FLAG 1088 432 VIN
FLAG 1296 432 Vref
SYMBOL voltage 1552 -128 R0
WINDOW 123 0 0 Left 0
WINDOW 39 0 0 Left 0
SYMATTR InstName V3
SYMATTR Value 12
SYMBOL voltage 864 416 R0
WINDOW 123 0 0 Left 0
WINDOW 39 0 0 Left 0
SYMATTR InstName V1
SYMATTR Value 5
SYMBOL voltage 672 416 R0
WINDOW 123 0 0 Left 0
WINDOW 39 0 0 Left 0
SYMATTR InstName V2
SYMATTR Value 0
SYMBOL OpAmps\\OP07 1568 512 M180
SYMATTR InstName U1
SYMBOL OpAmps\\OP07 1760 848 R180
SYMATTR InstName U2
SYMBOL res 1632 768 R90
WINDOW 0 0 56 VBottom 2
WINDOW 3 32 56 VTop 2
SYMATTR InstName R1
SYMATTR Value 1k
SYMBOL res 1472 768 R90
WINDOW 0 0 56 VBottom 2
WINDOW 3 32 56 VTop 2
SYMATTR InstName R2
SYMATTR Value 1k
SYMBOL res 1456 416 R90
WINDOW 0 0 56 VBottom 2
WINDOW 3 32 56 VTop 2
SYMATTR InstName R3
SYMATTR Value 1k
SYMBOL res 1568 320 R90
WINDOW 0 0 56 VBottom 2
WINDOW 3 32 56 VTop 2
SYMATTR InstName R4
SYMATTR Value 1k
SYMBOL res 1904 480 R0
SYMATTR InstName RLoad
SYMATTR Value 180
SYMBOL res 1904 848 R0
SYMATTR InstName RS
SYMATTR Value 331
SYMBOL OpAmps\\OP07 2016 -160 M180
SYMATTR InstName U6
SYMBOL OpAmps\\OP07 2016 32 R0
SYMATTR InstName U7
SYMBOL OpAmps\\OP07 2352 -128 R0
SYMATTR InstName U8
SYMBOL res 2096 -240 R0
SYMATTR InstName R16
SYMATTR Value 1k
SYMBOL res 2096 0 R0
SYMATTR InstName R7
SYMATTR Value 1k
SYMBOL res 2288 -240 R90
WINDOW 0 0 56 VBottom 2
WINDOW 3 32 56 VTop 2
SYMATTR InstName R8
SYMATTR Value 1k
SYMBOL res 2288 80 R90
WINDOW 0 0 56 VBottom 2
WINDOW 3 32 56 VTop 2
SYMATTR InstName R9
SYMATTR Value 1k
SYMBOL res 2448 -240 R90
WINDOW 0 0 56 VBottom 2
WINDOW 3 32 56 VTop 2
SYMATTR InstName R10
SYMATTR Value 1k
SYMBOL res 2448 80 R90
WINDOW 0 0 56 VBottom 2
WINDOW 3 32 56 VTop 2
SYMATTR InstName R11
SYMATTR Value 1k
SYMBOL res 2128 -16 R180
WINDOW 0 36 76 Left 2
WINDOW 3 36 40 Left 2
SYMATTR InstName RGain
SYMATTR Value 2k
SYMBOL voltage 1840 -128 R0
WINDOW 123 24 44 Left 2
WINDOW 39 0 0 Left 0
WINDOW 3 24 72 Left 2
SYMATTR Value 0.011
SYMATTR InstName V4
SYMBOL res 2624 432 M90
WINDOW 0 0 56 VBottom 2
WINDOW 3 32 56 VTop 2
SYMATTR InstName 17
SYMATTR Value 1k
SYMBOL ZZZ\\REF\\TL431A 2608 528 M0
SYMATTR InstName U5
SYMBOL voltage 2560 128 R0
WINDOW 123 0 0 Left 0
WINDOW 39 0 0 Left 0
SYMATTR InstName V5
SYMATTR Value 0.455
SYMBOL res 1232 416 R90
WINDOW 0 0 56 VBottom 2
WINDOW 3 32 56 VTop 2
SYMATTR InstName R116
SYMATTR Value 1k
SYMBOL ZZZ\\REF\\TL431A 1248 512 R0
SYMATTR InstName U9
TEXT 1840 -424 Left 2 !.tran 50000u
TEXT 1712 376 Left 2 ;ILoad = Vref/RS
TEXT 1840 -384 Left 2 ;.ac dec 100 0.01 10
TEXT 2528 -208 Left 2 ;VAIN0-VAIN1 = (1+2R/RGain)*(VINP-VINN)
